5
ch4 using the fisrt four atoms to fit
 C                 -0.38802945   -0.00429506   -0.89604430  1
 H                 -0.03137503   -1.01310506   -0.89604430  1
 H                 -0.03135661    0.50010314   -0.02239279  1
 H                 -0.03135661    0.50010314   -1.76969580  1
 H                 -1.45802945   -0.00428187   -0.89604430  0
6
ch3oh
 C                  0.24026297   -3.66224112   -1.93169722
 H                  0.62951048   -4.54646773   -1.47177366
 H                 -0.37058717   -3.13431175   -1.22952011
 H                  1.05010897   -3.03548700   -2.24190480
 O                 -0.54589443   -4.02369296   -3.07020902
 H                 -1.27163207   -4.58746093   -2.79259316
